@<TRIPOS>MOLECULE
*****
 36 36 0 0 0
SMALL
GASTEIGER

@<TRIPOS>ATOM
      1 N         -32.0820    1.6940  -39.7040 N.ar    1  UNL1       -0.1820
      2 C         -33.1720    1.0560  -39.3210 C.ar    1  UNL1        0.0495
      3 C         -32.8920    0.1390  -38.2720 C.ar    1  UNL1       -0.0197
      4 C         -31.5540    0.2510  -38.0390 C.ar    1  UNL1        0.0542
      5 N         -31.0790    1.2090  -38.9330 N.ar    1  UNL1       -0.2800
      6 N         -30.8463    0.0670  -35.6944 N.3     1  UNL1       -0.2504
      7 C         -30.6508   -0.4462  -37.0686 C.3     1  UNL1        0.0633
      8 C         -30.9233   -1.9673  -37.1478 C.3     1  UNL1       -0.0296
      9 C         -29.9471   -2.8139  -36.3281 C.3     1  UNL1       -0.0386
     10 C         -30.1839   -4.3048  -36.5838 C.3     1  UNL1       -0.0040
     11 N         -29.2496   -5.0626  -35.7529 N.3     1  UNL1       -0.3147
     12 N         -30.6238    1.4890  -35.6344 N.3     1  UNL1       -0.2699
     13 N         -26.5667   -3.9839  -35.6624 N.4     1  UNL1       -0.2030
     14 C         -27.0239   -4.7893  -36.8542 C.3     1  UNL1        0.0338
     15 C         -28.1439   -5.7464  -36.3968 C.3     1  UNL1        0.0106
     16 O         -25.5469   -3.0750  -36.0653 O.3     1  UNL1       -0.3150
     17 H         -34.1511    1.2109  -39.7497 H       1  UNL1        0.0848
     18 H         -33.5920   -0.5100  -37.7660 H       1  UNL1        0.0651
     19 H         -30.1148    1.5028  -38.9975 H       1  UNL1        0.1886
     20 H         -30.2735   -0.4573  -35.0189 H       1  UNL1        0.1410
     21 H         -29.6033   -0.2618  -37.3518 H       1  UNL1        0.0538
     22 H         -31.9405   -2.1944  -36.8044 H       1  UNL1        0.0285
     23 H         -30.8667   -2.2874  -38.1919 H       1  UNL1        0.0285
     24 H         -28.9127   -2.5553  -36.6058 H       1  UNL1        0.0278
     25 H         -30.0645   -2.6114  -35.2656 H       1  UNL1        0.0278
     26 H         -30.0209   -4.5519  -37.6493 H       1  UNL1        0.0424
     27 H         -31.2151   -4.5797  -36.3309 H       1  UNL1        0.0424
     28 H         -29.3790   -5.0022  -34.7487 H       1  UNL1        0.1220
     29 H         -31.2088    1.9172  -34.9093 H       1  UNL1        0.1368
     30 H         -29.6400    1.7669  -35.4182 H       1  UNL1        0.1368
     31 H         -26.2077   -4.6321  -34.9357 H       1  UNL1        0.1536
     32 H         -27.3730   -4.0874  -37.6270 H       1  UNL1        0.0460
     33 H         -26.1766   -5.3547  -37.2403 H       1  UNL1        0.0460
     34 H         -28.4962   -6.3316  -37.2362 H       1  UNL1        0.0437
     35 H         -27.7187   -6.4404  -35.6703 H       1  UNL1        0.0437
     36 H         -25.9543   -2.2117  -35.7830 H       1  UNL1        0.2363
@<TRIPOS>BOND
     1     2    17    1
     2     3    18    1
     3     5    19    1
     4     6    20    1
     5     7    21    1
     6     8    22    1
     7     8    23    1
     8     9    24    1
     9     9    25    1
    10    10    26    1
    11    10    27    1
    12    11    28    1
    13    12    29    1
    14    12    30    1
    15    13    31    1
    16    14    32    1
    17    14    33    1
    18    15    34    1
    19    15    35    1
    20    16    36    1
    21     1     5    1
    22     1     2    1
    23     2     3    1
    24     3     4    1
    25     4     5    1
    26     4     7    1
    27     6     7    1
    28     6    12    1
    29     7     8    1
    30     8     9    1
    31     9    10    1
    32    10    11    1
    33    11    15    1
    34    13    14    1
    35    13    16    1
    36    14    15    1
