@<TRIPOS>MOLECULE
ligand.pdb
99 101 1 0 0
SMALL
NO_CHARGES


@<TRIPOS>ATOM
      1 C01       -12.4670   15.9640   73.0960 C.3       1 LIG    0.0000
      2 C02       -12.9950   15.3880   71.7800 C.3       1 LIG    0.0000
      3 C03       -13.8380   14.0960   72.0290 C.3       1 LIG    0.0000
      4 C04       -11.8310   15.1500   70.7670 C.3       1 LIG    0.0000
      5 C05       -12.1490   14.0970   69.7190 C.3       1 LIG    0.0000
      6 C06       -11.6060   14.5460   68.3340 C.2       1 LIG    0.0000
      7 C08       -12.0040   15.4120   65.9580 C.3       1 LIG    0.0000
      8 C09       -12.4930   14.4450   64.8830 C.3       1 LIG    0.0000
      9 C10       -11.8410   12.9960   65.0590 C.3       1 LIG    0.0000
     10 C11       -12.3850   12.1060   64.2900 C.3       1 LIG    0.0000
     11 C13        -9.9370   12.0110   63.9120 C.2       1 LIG    0.0000
     12 C14       -10.2430   13.0750   64.6910 C.2       1 LIG    0.0000
     13 C16       -12.5270   16.7920   65.6420 C.3       1 LIG    0.0000
     14 C17       -11.4330   17.8220   65.2960 C.3       1 LIG    0.0000
     15 C18       -10.2300   17.7840   66.2710 C.2       1 LIG    0.0000
     16 C20        -7.8890   17.6160   66.7130 C.3       1 LIG    0.0000
     17 C21        -7.1440   18.9630   66.9160 C.ar      1 LIG    0.0000
     18 C22        -5.8000   18.9610   67.2780 C.ar      1 LIG    0.0000
     19 C23        -5.1250   20.1680   67.4620 C.ar      1 LIG    0.0000
     20 C24        -5.7990   21.3810   67.2850 C.ar      1 LIG    0.0000
     21 C25        -7.1410   21.3790   66.9270 C.ar      1 LIG    0.0000
     22 C26        -7.8200   20.1750   66.7400 C.ar      1 LIG    0.0000
     23 C30       -11.6840   11.6140   69.2840 C.2       1 LIG    0.0000
     24 C31       -10.9550   10.3610   69.6800 C.3       1 LIG    0.0000
     25 C32       -10.0290    9.9060   68.5150 C.3       1 LIG    0.0000
     26 C33        -9.1410    8.7020   68.9670 C.3       1 LIG    0.0000
     27 C34        -9.1500   11.0860   67.9990 C.3       1 LIG    0.0000
     28 C36       -12.1000    8.7640   71.2610 C.2       1 LIG    0.0000
     29 C37       -13.1640    7.6450   71.4850 C.3       1 LIG    0.0000
     30 C38       -14.4110    8.2250   72.1060 C.3       1 LIG    0.0000
     31 C40       -11.4720    5.8150   71.8760 C.2       1 LIG    0.0000
     32 C41       -10.8470    4.7530   72.7960 C.ar      1 LIG    0.0000
     33 C44        -9.9270    2.8690   73.6340 C.ar      1 LIG    0.0000
     34 C45        -9.3510    1.4670   73.8030 C.3       1 LIG    0.0000
     35 C46       -10.4270    3.4310   72.4380 C.ar      1 LIG    0.0000
     36 N07       -12.5410   14.9950   67.2680 N.am      1 LIG    0.0000
     37 N12       -11.2380   11.5470   63.3040 N.pl3     1 LIG    0.0000
     38 N29       -11.4640   12.8700   70.0800 N.am      1 LIG    0.0000
     39 N35       -11.9430    9.3170   69.9410 N.am      1 LIG    0.0000
     40 N39       -12.5850    6.6390   72.3560 N.am      1 LIG    0.0000
     41 N42       -10.5790    4.8790   74.0990 N.ar      1 LIG    0.0000
     42 O15       -13.4820   12.6030   63.5270 O.3       1 LIG    0.0000
     43 O19        -8.9130   17.8120   65.7370 O.3       1 LIG    0.0000
     44 O27       -10.4110   17.7420   67.4450 O.2       1 LIG    0.0000
     45 O28       -10.4380   14.5220   68.1180 O.2       1 LIG    0.0000
     46 O43       -10.0460    3.7720   74.5660 O.2       1 LIG    0.0000
     47 O47       -11.0490    5.9630   70.7820 O.2       1 LIG    0.0000
     48 O48       -11.4310    9.1400   72.1470 O.2       1 LIG    0.0000
     49 O49       -12.4270   11.6050   68.3580 O.2       1 LIG    0.0000
     50 H02       -13.6090   16.0600   71.3670 H         1 LIG    0.0000
     51 H042      -11.6320   16.0130   70.3020 H         1 LIG    0.0000
     52 H043      -11.0200   14.8590   71.2750 H         1 LIG    0.0000
     53 H05       -13.1390   13.9660   69.6740 H         1 LIG    0.0000
     54 H08       -11.0040   15.4140   65.9830 H         1 LIG    0.0000
     55 H092      -13.4880   14.3650   64.9430 H         1 LIG    0.0000
     56 H093      -12.2490   14.8060   63.9830 H         1 LIG    0.0000
     57 H10       -11.9900   12.7220   66.0090 H         1 LIG    0.0000
     58 H11       -12.7640   11.3840   64.8700 H         1 LIG    0.0000
     59 H13        -9.0310   11.6130   63.7680 H         1 LIG    0.0000
     60 H14        -9.6060   13.7860   64.9900 H         1 LIG    0.0000
     61 H162      -13.1510   16.7220   64.8640 H         1 LIG    0.0000
     62 H163      -13.0340   17.1260   66.4360 H         1 LIG    0.0000
     63 H172      -11.1010   17.6370   64.3710 H         1 LIG    0.0000
     64 H173      -11.8360   18.7370   65.3210 H         1 LIG    0.0000
     65 H202       -7.2480   16.9170   66.3970 H         1 LIG    0.0000
     66 H203       -8.2950   17.3190   67.5770 H         1 LIG    0.0000
     67 H22        -5.3180   18.0940   67.4060 H         1 LIG    0.0000
     68 H23        -4.1590   20.1660   67.7210 H         1 LIG    0.0000
     69 H24        -5.3160   22.2470   67.4160 H         1 LIG    0.0000
     70 H25        -7.6230   22.2460   66.8030 H         1 LIG    0.0000
     71 H26        -8.7860   20.1780   66.4810 H         1 LIG    0.0000
     72 H31       -10.4010   10.5300   70.4950 H         1 LIG    0.0000
     73 H32       -10.6060    9.6060   67.7550 H         1 LIG    0.0000
     74 H37       -13.4200    7.2340   70.6100 H         1 LIG    0.0000
     75 H46       -10.4770    3.0000   71.5370 H         1 LIG    0.0000
     76 H07       -13.5260   15.0140   67.4380 H         1 LIG    0.0000
     77 H29       -10.8420   12.8600   70.8630 H         1 LIG    0.0000
     78 H35       -12.5170    8.9820   69.1940 H         1 LIG    0.0000
     79 H39       -12.9440    6.5080   73.2800 H         1 LIG    0.0000
     80 H011      -11.6580   15.4480   73.3760 H         1 LIG    0.0000
     81 H012      -13.1790   15.8870   73.7940 H         1 LIG    0.0000
     82 H013      -12.2270   16.9250   72.9580 H         1 LIG    0.0000
     83 H331       -9.7170    7.8900   69.0610 H         1 LIG    0.0000
     84 H332       -8.7160    8.9220   69.8450 H         1 LIG    0.0000
     85 H333       -8.4350    8.5410   68.2770 H         1 LIG    0.0000
     86 H12       -11.3620   11.0090   62.4700 H         1 LIG    0.0000
     87 H031      -14.8050   14.3430   72.0810 H         1 LIG    0.0000
     88 H032      -13.5460   13.6780   72.8890 H         1 LIG    0.0000
     89 H033      -13.6890   13.4590   71.2720 H         1 LIG    0.0000
     90 H381      -14.2810    9.2070   72.2400 H         1 LIG    0.0000
     91 H382      -14.5740    7.7790   72.9860 H         1 LIG    0.0000
     92 H383      -15.1850    8.0640   71.4940 H         1 LIG    0.0000
     93 H15       -13.3420   13.5780   63.3530 H         1 LIG    0.0000
     94 H341       -8.2080   10.7680   67.8910 H         1 LIG    0.0000
     95 H342       -9.1840   11.8320   68.6640 H         1 LIG    0.0000
     96 H343       -9.5070   11.3970   67.1190 H         1 LIG    0.0000
     97 H451      -10.1030    0.8080   73.8390 H         1 LIG    0.0000
     98 H452       -8.8250    1.4310   74.6530 H         1 LIG    0.0000
     99 H453       -8.7560    1.2630   73.0250 H         1 LIG    0.0000
@<TRIPOS>BOND
     1    1    2 1
     2    1   80 1
     3    1   81 1
     4    1   82 1
     5    2    3 1
     6    2    4 1
     7    2   50 1
     8    3   87 1
     9    3   88 1
    10    3   89 1
    11    4    5 1
    12    4   51 1
    13    4   52 1
    14    5    6 1
    15    5   38 1
    16    5   53 1
    17    6   36 am
    18    6   45 2
    19    7    8 1
    20    7   13 1
    21    7   36 1
    22    7   54 1
    23    8    9 1
    24    8   55 1
    25    8   56 1
    26    9   10 1
    27    9   12 1
    28    9   57 1
    29   10   37 1
    30   10   42 1
    31   10   58 1
    32   11   12 2
    33   11   37 2
    34   11   59 1
    35   12   60 1
    36   13   14 1
    37   13   61 1
    38   13   62 1
    39   14   15 1
    40   14   63 1
    41   14   64 1
    42   15   43 1
    43   15   44 2
    44   16   17 1
    45   16   43 1
    46   16   65 1
    47   16   66 1
    48   17   18 ar
    49   17   22 ar
    50   18   19 ar
    51   18   67 1
    52   19   20 ar
    53   19   68 1
    54   20   21 ar
    55   20   69 1
    56   21   22 ar
    57   21   70 1
    58   22   71 1
    59   23   24 1
    60   23   38 am
    61   23   49 2
    62   24   25 1
    63   24   39 1
    64   24   72 1
    65   25   26 1
    66   25   27 1
    67   25   73 1
    68   26   83 1
    69   26   84 1
    70   26   85 1
    71   27   94 1
    72   27   95 1
    73   27   96 1
    74   28   29 1
    75   28   39 am
    76   28   48 2
    77   29   30 1
    78   29   40 1
    79   29   74 1
    80   30   90 1
    81   30   91 1
    82   30   92 1
    83   31   32 1
    84   31   40 am
    85   31   47 2
    86   32   35 ar
    87   32   41 ar
    88   33   34 1
    89   33   35 ar
    90   33   46 ar
    91   34   97 1
    92   34   98 1
    93   34   99 1
    94   35   75 1
    95   36   76 1
    96   37   86 1
    97   38   77 1
    98   39   78 1
    99   40   79 1
   100   41   46 ar
   101   42   93 1
@<TRIPOS>SUBSTRUCTURE
     1 LIG     1 RESIDUE           4 C     LIG     0 ROOT


















