# created with PyMOL 3.1.0
@<TRIPOS>MOLECULE
lig_fix.pdb
11 10 1                 
SMALL
USER_CHARGES
@<TRIPOS>ATOM
1	   N	-34.694	1.365	-41.153	N.pl3	1	<0>1	0.000	
2	   N	-34.577	-1.423	-37.054	N.1	1	<0>1	0.000	
3	   C	-34.596	1.146	-39.814	C.2	1	<0>1	0.000	
4	   C	-33.825	-0.726	-37.598	C.1	1	<0>1	0.000	
5	   O	-33.535	1.088	-41.886	O.3	1	<0>1	0.000	
6	   O	-35.561	1.060	-39.065	O.2	1	<0>1	0.000	
7	   O	-33.894	0.665	-43.218	O.3	1	<0>1	0.000	
8	  C7	-33.172	1.056	-39.321	C.3	1	<0>1	0.000	
9	  C8	-32.892	0.139	-38.272	C.3	1	<0>1	0.000	
10	   H	-35.577	1.188	-41.613	 H	1	<0>1	0.000	
11	   H	-33.529	1.444	-43.673	 H	1	<0>1	0.000	
@<TRIPOS>BOND
1 1 5 1
2 1 3 1
3 3 6 2
4 3 8 1
5 2 4 3
6 4 9 1
7 5 7 1
8 8 9 1
9 1 10 1
10 7 11 1
@<TRIPOS>SUBSTRUCTURE
1	<0>1	1	GROUP	1 A	<0>
